STAAD SPACE
START JOB INFORMATION
ENGINEER DATE 04-Mar-22
END JOB INFORMATION
INPUT WIDTH 79
UNIT INCHES KIP
JOINT COORDINATES
1 0 0 0; 2 0 -12 0; 3 -5.0004 -12 0; 4 -5.0004 2.4996 0; 5 0 7.5 0;
6 23.0004 7.5 0; 8 23.0004 6.9996 0; 10 23.0004 -6.9996 0; 12 23.0004 -7.5 0;
14 1.9848 -16.5888 0; 16 -4.6188 4.4136 0; 18 -3.5352 6.036 0;
20 -1.914 7.1196 0; 24 -0.432 -16.9812 0; 26 -2.7456 -16.1784 0;
28 -4.4004 -14.3736 0; 29 0 -2.5 0; 30 1.25 -2.16506 0; 31 2.16506 -1.25 0;
32 2.5 0 0; 33 2.16506 1.25 0; 34 1.25 2.16506 0; 35 0 2.5 0;
36 -1.25 2.16506 0; 37 -2.16506 1.25 0; 38 -2.5 0 0; 39 -2.16506 -1.25 0;
40 -1.25 -2.16506 0; 41 0 -14.375 0; 42 1.1875 -14.0568 0;
43 2.05681 -13.1875 0; 44 2.375 -12 0; 45 2.05681 -10.8125 0;
46 1.1875 -9.94319 0; 47 0 -9.625 0; 48 -1.1875 -9.94319 0;
49 -2.05681 -10.8125 0; 50 -2.375 -12 0; 51 -2.05681 -13.1875 0;
52 -1.1875 -14.0568 0; 53 11.5002 7.5 0; 54 23.0004 4.6664 0;
55 23.0004 2.3332 0; 56 23.0004 2.38419e-07 0; 57 23.0004 -2.3332 0;
58 23.0004 -4.6664 0; 59 20.8988 -8.40888 0; 60 18.7973 -9.31776 0;
61 16.6957 -10.2266 0; 62 14.5942 -11.1355 0; 63 12.4926 -12.0444 0;
64 10.391 -12.9533 0; 65 8.28948 -13.8622 0; 66 6.18792 -14.771 0;
67 4.08636 -15.6799 0; 68 -5.0004 -9.5834 0; 69 -5.0004 -7.1668 0;
70 -5.0004 -4.7502 0; 71 -5.0004 -2.3336 0; 72 -5.0004 0.0829999 0;
73 10.4994 -0.708811 0; 74 6.86438 -3.58281 0; 75 3.4836 -5.64255 0;
76 -2.04728 -5.46565 0; 77 9.63121 -10.8308 0; 78 2.48669 -8.09489 0;
# ... 18 like lines cut
ELEMENT INCIDENCES SHELL
1 50 51 28 3; 2 51 52 26 28; 3 78 86 45 46; 4 85 77 98 106; 5 37 38 72 4;
6 89 33 34 5; 7 89 87 32 33; 8 42 14 24 41; 9 92 74 75 101; 10 43 67 14 42;
11 36 37 4 16; 12 29 96 102 40; 13 101 75 103 96; 14 35 36 18 20;
15 39 79 70 71; 16 91 83 90 104; 17 76 100 105 69; 18 78 46 47 95;
19 92 101 30 31; 20 38 39 71 72; 21 41 24 26 52; 22 75 78 95 103;
23 87 92 31 32; 24 10 12 59 82; 25 5 34 35 20; 26 94 73 87 89;
27 100 47 48 105; 28 99 106 86 81; 29 90 61 62 88; 30 82 59 60 83;
31 98 65 66 97; 32 106 98 97 86; 33 53 94 89 5; 34 53 104 73 94;
35 56 57 84 91; 36 88 62 63 85; 37 73 74 92 87; 38 83 60 61 90;
39 93 91 104 53; 40 48 49 68 105; 41 40 102 79 39; 42 54 55 91 93;
43 85 63 64 77; 44 96 103 100 76; 45 103 95 47 100; 46 77 64 65 98;
47 90 88 99 80; 48 84 82 83 91; 49 57 58 82 84; 50 86 97 44 45;
51 102 96 76 79; 52 49 50 3 68; 53 104 90 80 73; 54 73 80 99 74;
55 88 85 106 99; 56 97 66 67 43; 57 74 99 81 75; 58 79 76 69 70;
59 30 101 96 29; 60 81 86 78 75; 61 6 93 53; 62 58 10 82; 63 18 36 16;
64 6 8 93; 65 8 54 93; 66 69 105 68; 67 97 43 44; 68 55 56 91;
69 36 112 113 37; 70 32 31 107 108; 71 107 31 30 118; 72 34 33 109 110;
73 119 34 110 111; 74 114 115 39 38; 75 35 119 111 112; 76 37 113 114 38;
77 115 116 40 39; 78 117 118 30 29; 79 33 32 108 109; 80 116 117 29 40;
81 36 35 112; 82 48 47 125 126; 83 122 44 43 121; 84 128 129 51 50;
85 121 43 42 120; 86 47 132 124 125; 87 132 46 123 124; 88 127 128 50 49;
89 45 44 122 123; 90 130 131 41 52; 91 48 126 127 49; 92 120 42 41 131;
93 129 130 52 51; 94 46 45 123;
PARAMETRIC MODEL EAR PL 1IN 
TYPE UNDEFINED
MESH PARAM 2.5 4 1 1
MESH ORG 1 4 5
BOUNDARY 14
5 0 1 6 0 1 8 0 1 10 0 1 12 0 1 14 0 1 24 0 1 26 0 1 28 0 1 3 0 1 4 0 1 -
16 0 1 18 0 1 20 0 1
OPENING CIRC 0 0 0 2.5 12 0
OPENING CIRC 0 -12 0 2.375 12 0
GENERATED NODES 29 TO 106
GENERATED PLATES PLATE 1 TO 68
END
PARAMETRIC MODEL Top 3in
TYPE UNDEFINED
MESH PARAM 4 4 1 1
MESH ORG 1 2 3
BOUNDARY 12
35 0 1 34 0 1 33 0 1 32 0 1 31 0 1 30 0 1 29 0 1 40 0 1 39 0 1 38 0 1 37 0 1 -
36 0 1
OPENING CIRC 0 0 0 1.5 12 0
GENERATED NODES 107 TO 119
GENERATED PLATES PLATE 69 TO 81
END
PARAMETRIC MODEL Bottom 3in
TYPE UNDEFINED
MESH PARAM 4 4 1 1
MESH ORG 1 2 3
BOUNDARY 12
47 0 1 46 0 1 45 0 1 44 0 1 43 0 1 42 0 1 41 0 1 52 0 1 51 0 1 50 0 1 49 0 1 -
48 0 1
OPENING CIRC 0 -12 0 1.375 12 0
GENERATED NODES 120 TO 132
GENERATED PLATES PLATE 82 TO 94
END
ELEMENT PROPERTY
1 TO 68 THICKNESS 1
69 TO 94 THICKNESS 3
DEFINE MATERIAL START
ISOTROPIC STEEL_36_KSI
E 29000
POISSON 0.3
DENSITY 0.000283
ALPHA 6.5e-06
DAMP 0.03
TYPE STEEL
STRENGTH FY 36 FU 58 RY 1.5 RT 1.2
END DEFINE MATERIAL
CONSTANTS
MATERIAL STEEL_36_KSI ALL
FINISH
